<connections>

<!-- <crossing node="node3" edges="2to3" priority="true"/> -->
<!-- <crossing node="node3" edges="2to3 3to4" priority="true"/> -->
<!-- <crossing node="node3" edges="1to3 3to4" priority="true"/> -->

<crossing node="node3" edges="1to3 3to1" priority="true"/>
<crossing node="node3" edges="9to3 3to9" priority="true"/>
<crossing node="node3" edges="4to3 3to4" priority="true"/>
<crossing node="node3" edges="5to3 3to5" priority="true"/>

<!-- <crossing node="node9" edges="2to9 9to2" priority="true"/> -->
<!-- <crossing node="node9" edges="3to9 9to3" priority="true"/> -->

</connections>

