<?xml version="1.0" encoding="UTF-8"?>
<routes>
	<route id="route0" edges="2to9 9to3 3to4"/>
	<route id="route1" edges="4to3 3to9 9to2"/>
	<route id="route2" edges="1to3 3to5"/>
	<route id="route3" edges="5to3 3to1"/>
	<route id="route4" edges="8to9 9to3 3to5"/>
	
   
	<vType id="vtype0" accel="2.6" decel="4.5" sigma="0.5" length="4" width = "2" minGap="2.5" maxSpeed="14" color="1,1,0"/>
	<vType id="vtype1" accel="2.6" decel="4.5" sigma="0.5" length="0.21" width = "0.48" minGap="2.5" maxSpeed="1.39" color="0,1,1"/>
	
	<flow id="flow0" type="vtype0" route="route0" begin="0" period="3" number="10"/>	
	<flow id="flow1" type="vtype0" route="route1" begin="0" period="3" number="10"/>	
	<flow id="flow2" type="vtype0" route="route2" begin="0" period="3" number="10"/>	
	<flow id="flow3" type="vtype0" route="route3" begin="0" period="3" number="10"/>
		
	<flow id="flow4" type="vtype1" route="route4" begin="0" period="3" number="10" departPos="250"/>
		
</routes>
